[General]
network = GrafoCompleto
cpu-time-limit = 0.0
sim-time-limit = 0.0
simtime-scale = -3
record-eventlog = true