[General]
network = BasicNetwork
cpu-time-limit = 0.0
sim-time-limit = 0.0
simtime-scale = -3

[Config WithLimit]
network = BasicNetwork
BasicNetwork.toc.limit = 5

[Config ArrayNetwork]
network = ArrayNetwork
