[General]
network = ConcertNetwork
cpu-time-limit = 0.0
sim-time-limit = 0.0
simtime-scale = -3
record-eventlog = true

[Config Custom]
# CUSTOM PARAMS FOR SIMULATION
# time between package sent
*.interval = exponential(3s,1s) 
